 3
        1
O   -0.03443138   0.02926994  -0.13114896
H    1.54483973   0.01289508   1.03695210
H   -1.48178192   0.02008096   1.01996315
 3
        2
O   -0.01494190   0.01408358  -0.12532911
H    1.42782732   0.00241736   1.03630283
H   -1.45662192   0.02751685   1.01058854
 3
        3
O    0.04322773  -0.03989277  -0.14235883
H    1.47201145  -0.00895335   1.03558443
H   -1.38350264  -0.06801493   1.09866854
 3
        4
O   -0.02043896   0.01790521  -0.12880683
H    1.37831335   0.00643495   1.03655105
H   -1.46382379   0.01913555   1.01942777
 3
        5
O    0.00231758  -0.00179013  -0.12981894
H    1.49944807  -0.00128218   1.03606972
H   -1.43489441   0.00109855   1.03482308
 3
        6
O    0.02184536  -0.01674364  -0.12294296
H    1.40527468  -0.01238490   1.03538214
H   -1.40962498   0.01212427   1.02190540
 3
        7
O    0.01206856  -0.01037788  -0.13084304
H    1.44930639  -0.00424733   1.03588440
H   -1.42253232  -0.00865070   1.04341181
 3
        8
O   -0.05667006   0.04700910  -0.13615687
H    1.33526444   0.02390610   1.03763507
H   -1.51039727   0.01718432   1.02515105
 3
        9
O    0.01357171  -0.01183579  -0.13153413
H    1.39266021  -0.00439593   1.03587473
H   -1.42065727  -0.01197840   1.04653479
 3
       10
O    0.01788383  -0.01605499  -0.13366321
H    1.48482855  -0.00473744   1.03585220
H   -1.41528670  -0.02202612   1.05598816
 3
       11
O    0.04607081  -0.03941184  -0.13078720
H    1.25590265  -0.01668530   1.03510961
H   -1.37921675  -0.03023465   1.06112453
 3
       12
O   -0.02165561   0.01927643  -0.12748713
H    1.43856088   0.00611535   1.03653192
H   -1.46529780   0.02443102   1.01433480
 3
       13
O   -0.00111522  -0.00034814  -0.13574698
H    1.41671181   0.00339988   1.03635788
H   -1.43960749  -0.01699030   1.05301605
 3
       14
O   -0.00160373   0.00296907  -0.12421462
H    1.51844977  -0.00309383   1.03596017
H   -1.43956765   0.02278915   1.01385056
 3
       15
O    0.02561673  -0.02171132  -0.12988576
H    1.35966371  -0.00974418   1.03554254
H   -1.40521958  -0.01405092   1.04731480
 3
       16
O   -0.05364574   0.04696485  -0.12605807
H    1.46072806   0.01696012   1.03720834
H   -1.50596508   0.04980813   0.99267156
 3
       17
O    0.00818436  -0.00790336  -0.13419848
H    1.45514225  -0.00088893   1.03609162
H   -1.42767269  -0.01764639   1.05268760
 3
       18
O    0.00441510  -0.00544517  -0.13722831
H    1.34704186   0.00223916   1.03628470
H   -1.43264796  -0.02560138   1.06092535
 3
       19
O    0.00932243  -0.00618591  -0.12350201
H    1.51033253  -0.00749249   1.03568658
H   -1.42560891   0.01823074   1.01719863
 3
       20
O   -0.02819353   0.02351227  -0.13285382
H    1.41006665   0.01160554   1.03687076
H   -1.47393398   0.01025178   1.02899911
 3
       21
O    0.02083019  -0.01881176  -0.13461647
H    1.48015070  -0.00526091   1.03581903
H   -1.41158832  -0.02717526   1.06075547
 3
       22
O    0.03170619  -0.02831489  -0.13545877
H    1.38288513  -0.00874170   1.03560169
H   -1.39778274  -0.03702279   1.06932310
 3
       23
O    0.03776628  -0.03216836  -0.13019486
H    1.57742459  -0.01399810   1.03527736
H   -1.38976112  -0.02288929   1.05475399
 3
       24
O   -0.02082316   0.01960569  -0.12334960
H    1.43286840   0.00341790   1.03636633
H   -1.46399988   0.03805758   1.00081370
 3
       25
O   -0.01157887   0.00949427  -0.13215449
H    1.36453576   0.00513912   1.03646835
H   -1.45272992   0.00200503   1.03538678
 3
       26
O   -0.03736463   0.03350096  -0.12428832
H    1.46862361   0.00999611   1.03677556
H   -1.48512445   0.04543823   0.99527221
 3
       27
O    0.03969253  -0.03362837  -0.12945680
H    1.42083633  -0.01512788   1.03520742
H   -1.38726507  -0.02159705   1.05327803
 3
       28
O   -0.01741180   0.01271242  -0.13917320
H    1.53950760   0.01132786   1.03684973
H   -1.46056292  -0.01827933   1.05599592
 3
       29
O    0.01059330  -0.00674128  -0.12139295
H    1.29959749  -0.00917634   1.03558293
H   -1.42386897   0.02463460   1.01075207
 3
       30
O    0.01376586  -0.01318873  -0.13625492
H    1.44469246  -0.00173560   1.03603767
H   -1.42068099  -0.02825844   1.06256418
 3
       31
O   -0.00878845   0.00768468  -0.12987079
H    1.39373826   0.00279983   1.03632397
H   -1.44904436   0.00803342   1.02915103
 3
       32
O   -0.05855754   0.05029264  -0.12951127
H    1.49987636   0.02075000   1.03744239
H   -1.51242002   0.04113593   1.00173620
 3
       33
O   -0.02356467   0.02086358  -0.12766115
H    1.41670114   0.00691254   1.03658148
H   -1.46773958   0.02505805   1.01391685
 3
       34
O    0.00959959  -0.00799552  -0.12975688
H    1.53786828  -0.00397492   1.03590201
H   -1.42561496  -0.00335247   1.03844745
 3
       35
O    0.05176280  -0.04392833  -0.12941058
H    1.35239479  -0.01955844   1.03493144
H   -1.37188720  -0.02916867   1.05947669
 3
       36
O   -0.02019313   0.01382937  -0.14418055
H    1.46804510   0.01523958   1.03709045
H   -1.46439329  -0.03363455   1.07142560
 3
       37
O   -0.01850676   0.01890091  -0.11828263
H    1.38746153  -0.00035868   1.03613406
H   -1.46075832   0.05391457   0.98493810
 3
       38
O   -0.00248698   0.00357333  -0.12481236
H    1.49896342  -0.00242576   1.03600144
H   -1.44072707   0.02130917   1.01540223
 3
       39
O    0.04286584  -0.03848969  -0.13800850
H    1.26544224  -0.01133816   1.03543844
H   -1.38371386  -0.05289526   1.08380070
 3
       40
O   -0.04046155   0.03529422  -0.12767829
H    1.44201900   0.01308725   1.03696612
H   -1.48926395   0.03582018   1.00507898
 3
       41
O   -0.00974761   0.00620254  -0.13902361
H    1.51972220   0.00844505   1.03667023
H   -1.45079162  -0.02267553   1.05952617
 3
       42
O    0.00247536  -0.00202115  -0.13020161
H    1.40063298  -0.00111836   1.03607970
H   -1.43471540  -0.00031208   1.03619721
 3
       43
O    0.15424455  -0.13307901  -0.13577695
H    1.45580815  -0.05326553   1.03282790
H   -1.24171053  -0.11658533   1.13490924
 3
       44
O    0.00000917  -0.00037570  -0.13203659
H    1.31646209   0.00084304   1.03620080
H   -1.43796221  -0.00501249   1.04108977
 3
       45
O   -0.00716412   0.00679270  -0.12789956
H    1.58900546   0.00106676   1.03621718
H   -1.44686209   0.01373924   1.02335557
 3
       46
O    0.04755588  -0.04498996  -0.14792507
H    1.42831379  -0.00731217   1.03568338
H   -1.37830898  -0.08983571   1.11972674
 3
       47
O    0.02089347  -0.01774027  -0.13014036
H    1.48662863  -0.00787361   1.03565891
H   -1.41125073  -0.01189742   1.04568711
 3
       48
O   -0.06148509   0.05145435  -0.13483741
H    1.36421171   0.02489949   1.03769773
H   -1.51645494   0.02478339   1.01816444
 3
       49
O   -0.01239166   0.00788767  -0.14130503
H    1.28899137   0.01072962   1.03681120
H   -1.45429061  -0.02878988   1.06583131
 3
       50
O   -0.03133632   0.02623417  -0.13270654
H    1.44959037   0.01266698   1.03693697
H   -1.47792883   0.01276844   1.02684764
 3
       51
O    0.06506067  -0.05789643  -0.13978124
H    1.38964279  -0.01841030   1.03499683
H   -1.35554366  -0.07317561   1.10146653
 3
       52
O   -0.01692819   0.01731666  -0.11921995
H    1.51652752  -0.00039234   1.03613141
H   -1.45880134   0.04969593   0.98893151
 3
       53
O    0.05307495  -0.04771375  -0.14000667
H    1.35046163  -0.01390691   1.03527724
H   -1.37082411  -0.06627142   1.09591699
 3
       54
O    0.04132093  -0.03583701  -0.13270792
H    1.48100902  -0.01384110   1.03528565
H   -1.38537746  -0.03376600   1.06510405
 3
       55
O    0.01946667  -0.01415531  -0.12073095
H    1.42005824  -0.01279677   1.03535779
H   -1.41252798   0.02121760   1.01319016
 3
       56
O   -0.04328829   0.03925216  -0.12154179
H    1.57663060   0.01056838   1.03681284
H   -1.49251237   0.05863103   0.98288725
 3
       57
O   -0.01244929   0.01296346  -0.12131526
H    1.49960497  -0.00081424   1.03610389
H   -1.45321637   0.03965696   0.99835875
 3
       58
O   -0.01613662   0.01400341  -0.12970688
H    1.36853150   0.00538597   1.03648517
H   -1.45839511   0.01330015   1.02472943
 3
       59
O    0.03898731  -0.03497854  -0.13722212
H    1.66030563  -0.01037804   1.03549872
H   -1.38860921  -0.04772025   1.07910565
 3
       60
O   -0.05131261   0.04594064  -0.12220459
H    1.43498582   0.01387949   1.03701871
H   -1.50277187   0.06150153   0.98089889
 3
       61
O   -0.00037849  -0.00241318  -0.14145634
H    1.46654911   0.00643418   1.03654353
H   -1.43899682  -0.03700092   1.07266634
 3
       62
O   -0.03371615   0.03331995  -0.11261285
H    1.31665906   0.00191024   1.03627876
H   -1.47980667   0.08305808   0.95780189
 3
       63
O    0.04880908  -0.04361972  -0.13821823
H    1.54844713  -0.01338520   1.03531080
H   -1.37615534  -0.05741906   1.08763723
 3
       64
O   -0.07245452   0.06284320  -0.12681335
H    1.40234525   0.02425944   1.03766260
H   -1.52996724   0.05926851   0.98531753
 3
       65
O   -0.03520351   0.03066143  -0.12823848
H    1.39100326   0.01149296   1.03686647
H   -1.48259837   0.03053581   1.00973718
 3
       66
O   -0.01087702   0.00965783  -0.12911957
H    1.48309817   0.00312723   1.03634481
H   -1.45166166   0.01194179   1.02551698
 3
       67
O    0.02229122  -0.01929750  -0.13158450
H    1.43722147  -0.00754809   1.03567834
H   -1.40955318  -0.01773474   1.05129527
 3
       68
O   -0.03194210   0.02850697  -0.12572611
H    1.61948413   0.00884954   1.03670329
H   -1.47829972   0.03704515   1.00297788
 3
       69
O   -0.00308434   0.00126784  -0.13601035
H    1.35802124   0.00427068   1.03641197
H   -1.44213088  -0.01663058   1.05286793
 3
       70
O    0.00783109  -0.00458852  -0.12221610
H    1.45897838  -0.00769233   1.03567489
H   -1.42743476   0.02358651   1.01207502
 3
       71
O    0.04595923  -0.03968820  -0.13226534
H    1.41531547  -0.01578943   1.03516454
H   -1.37944374  -0.03522174   1.06605278
 3
       72
O   -0.02831885   0.02408735  -0.13099257
H    1.51599981   0.01057446   1.03680763
H   -1.47398675   0.01670169   1.02265358
 3
       73
O   -0.02538958   0.02157678  -0.13102483
H    1.44815061   0.00952438   1.03674220
H   -1.47025728   0.01471537   1.02430460
 3
       74
O   -0.01171639   0.01098927  -0.12667637
H    1.32766018   0.00201998   1.03627728
H   -1.45259059   0.02084057   1.01683211
 3
       75
O    0.06231705  -0.05463340  -0.13612590
H    1.50007655  -0.01952406   1.03492961
H   -1.35882864  -0.05890911   1.08768958
 3
       76
O   -0.01976591   0.01891520  -0.12250365
H    1.40176248   0.00254275   1.03631231
H   -1.46260458   0.04027556   0.99851622
 3
       77
O    0.02380410  -0.02086380  -0.13267355
H    1.47295972  -0.00747000   1.03568256
H   -1.40768857  -0.02243060   1.05576604
 3
       78
O    0.02104734  -0.01710910  -0.12710754
H    1.37060982  -0.00968436   1.03554791
H   -1.41088061  -0.00161690   1.03553588
 3
       79
O    0.01953943  -0.01662689  -0.13031284
H    1.55194930  -0.00727981   1.03569580
H   -1.41298542  -0.01162056   1.04555617
 3
       80
O   -0.04554078   0.03740949  -0.13652236
H    1.42497868   0.02005706   1.03739508
H   -1.49624168   0.00880632   1.03224338
 3
       81
O   -0.00839029   0.00638103  -0.13370247
H    1.40545061   0.00487135   1.03645075
H   -1.44875716  -0.00533452   1.04228812
 3
       82
O   -0.01615900   0.01441120  -0.12816120
H    1.51735131   0.00449989   1.03643089
H   -1.45833487   0.01860418   1.01950277
 3
       83
O    0.05030922  -0.04190892  -0.12631813
H    1.32872037  -0.02081721   1.03485486
H   -1.37356124  -0.01765468   1.04827803
 3
       84
O   -0.00470632   0.00379820  -0.13145805
H    1.45669480   0.00222876   1.03628746
H   -1.44393562  -0.00001276   1.03665529
 3
       85
O    0.01815154  -0.01454157  -0.12673509
H    1.43045844  -0.00884331   1.03560052
H   -1.41454793   0.00151217   1.03275477
 3
       86
O    0.04546203  -0.04066947  -0.13785685
H    1.59291869  -0.01237310   1.03537406
H   -1.38039810  -0.05403889   1.08465589
 3
       87
O    0.01151235  -0.00959291  -0.12961105
H    1.36911031  -0.00475715   1.03585337
H   -1.42317010  -0.00407830   1.03896243
 3
       88
O   -0.03079714   0.02597199  -0.13191738
H    1.48813729   0.01201370   1.03689674
H   -1.47719671   0.01512385   1.02446901
 3
       89
O   -0.00192783   0.00157069  -0.13087688
H    1.55438706   0.00087880   1.03620371
H   -1.44036299   0.00019681   1.03615730
 3
       90
O    0.00173387  -0.00278688  -0.13576594
H    1.41529251   0.00237136   1.03629380
H   -1.43597938  -0.01887973   1.05457997
 3
       91
O    0.03927966  -0.03081134  -0.11965667
H    1.47423504  -0.02064702   1.03486939
H   -1.38722835   0.01220584   1.01999660
 3
       92
O   -0.01872972   0.01447276  -0.13665014
H    1.34119273   0.01034901   1.03679024
H   -1.46209685  -0.00880078   1.04678966
 3
       93
O   -0.00765682   0.00647112  -0.13085228
H    1.51086141   0.00295479   1.03633305
H   -1.44765922   0.00394981   1.03305819
 3
       94
O   -0.03854757   0.03112916  -0.13773947
H    1.38059014   0.01820974   1.03727928
H   -1.48740354   0.00016260   1.04003142
 3
       95
O    0.02014939  -0.01846466  -0.13554906
H    1.44463774  -0.00447298   1.03586756
H   -1.41250908  -0.02993083   1.06354345
 3
       96
O   -0.04467541   0.03889704  -0.12766664
H    1.24625302   0.01461793   1.03706148
H   -1.49463094   0.03855862   1.00282120
 3
       97
O   -0.06100433   0.05139047  -0.13345812
H    1.48179747   0.02392612   1.03763791
H   -1.51576336   0.02919578   1.01376405
 3
       98
O   -0.03575894   0.03218977  -0.12404756
H    1.33931779   0.00927100   1.03673054
H   -1.48306528   0.04523386   0.99530529
 3
       99
O    0.04995956  -0.04157046  -0.12616004
H    1.58229753  -0.02078110   1.03485720
H   -1.37399756  -0.01688974   1.04756058
 3
      100
O   -0.04385741   0.03640457  -0.13479969
H    1.41612493   0.01844625   1.03729575
H   -1.49399849   0.01362369   1.02731761
 3
      101
O    0.02383635  -0.01877583  -0.12426047
H    1.44937303  -0.01234907   1.03538359
H   -1.40716448   0.00634039   1.02739866
 3
      102
O    0.05256876  -0.04773024  -0.14179196
H    1.25293155  -0.01268937   1.03535203
H   -1.37157141  -0.07205695   1.10167376
 3
      103
O    0.02425995  -0.02132580  -0.13296214
H    1.52691351  -0.00746936   1.03568243
H   -1.40712448  -0.02371014   1.05697968
 3
      104
O   -0.04731610   0.03753441  -0.14205703
H    1.37782121   0.02390681   1.03763162
H   -1.49882086  -0.00899777   1.04998180
 3
      105
O   -0.00641201   0.00638070  -0.12698279
H    1.29835764   0.00026196   1.03616758
H   -1.44585141   0.01639500   1.02065851
 3
      106
O    0.02050603  -0.01711548  -0.12897193
H    1.46806487  -0.00840824   1.03562630
H   -1.41167717  -0.00765065   1.04154105
 3
      107
O    0.06210744  -0.05079425  -0.12157036
H    1.39562873  -0.02786855   1.03441840
H   -1.35825998  -0.00896222   1.03847121
 3
      108
O   -0.04993747   0.04020579  -0.14033924
H    1.56009493   0.02386940   1.03763031
H   -1.50206137  -0.00144033   1.04280617
 3
      109
O   -0.00413844   0.00637975  -0.11926236
H    1.35200102  -0.00503412   1.03584223
H   -1.44251207   0.04136022   0.99580801
 3
      110
O    0.02930123  -0.02414911  -0.12706276
H    1.51018638  -0.01272169   1.03535872
H   -1.40036416  -0.00674944   1.03973021
 3
      111
O    0.06442380  -0.05616099  -0.13504340
H    1.43206631  -0.02091897   1.03484336
H   -1.35608290  -0.05655369   1.08514654
 3
      112
O   -0.06274322   0.05436522  -0.12753574
H    1.68571097   0.02113421   1.03746749
H   -1.51763836   0.05057721   0.99286744
 3
      113
O    0.00740770  -0.00392075  -0.12099893
H    1.52422047  -0.00824204   1.03564137
H   -1.42790419   0.02802311   1.00774558
 3
      114
O    0.00174841  -0.00171579  -0.13145699
H    1.35976008  -0.00012685   1.03614072
H   -1.43571347  -0.00414275   1.04004993
 3
      115
O    0.02317334  -0.01865219  -0.12602131
H    1.44152148  -0.01108846   1.03546108
H   -1.40811013   0.00073895   1.03299040
 3
      116
O   -0.05023243   0.04465244  -0.12365773
H    1.15514208   0.01432609   1.03704567
H   -1.50147935   0.05583680   0.98637021
 3
      117
O    0.03892803  -0.03692015  -0.14514501
H    1.59014810  -0.00577270   1.03578092
H   -1.38913960  -0.07479637   1.10580496
 3
      118
O    0.00612041  -0.00299240  -0.12168048
H    1.40131591  -0.00737807   1.03569478
H   -1.42958309   0.02651506   1.00936730
 3
      119
O    0.03980339  -0.03478945  -0.13369761
H    1.48271178  -0.01271485   1.03535523
H   -1.38736734  -0.03618115   1.06764419
 3
      120
O   -0.04347483   0.03776434  -0.12809234
H    1.29629456   0.01442619   1.03704929
H   -1.49312607   0.03633290   1.00488952
 3
      121
O   -0.00940101   0.00651332  -0.13661019
H    1.42124640   0.00692233   1.03657680
H   -1.45021156  -0.01463817   1.05156615
 3
      122
O   -0.03684898   0.03146765  -0.13062259
H    1.65319763   0.01347261   1.03698839
H   -1.48483127   0.02343056   1.01691448
 3
      123
O    0.06508038  -0.05861398  -0.14256785
H    1.32592685  -0.01680533   1.03509517
H   -1.35567853  -0.08272469   1.11087847
 3
      124
O   -0.02189602   0.02210120  -0.11707027
H    1.50769008   0.00017649   1.03616812
H   -1.46500598   0.06023404   0.97906346
 3
      125
O    0.00560243  -0.00660413  -0.13780349
H    1.37645097   0.00213873   1.03627810
H   -1.43116856  -0.02833016   1.06349101
 3
      126
O    0.00357025  -0.00202614  -0.12650170
H    1.56441771  -0.00365838   1.03592365
H   -1.43310830   0.01164875   1.02429076
 3
      127
O   -0.00581699   0.00691136  -0.12285093
H    1.24008155  -0.00234558   1.03600759
H   -1.44485625   0.03015419   1.00703155
 3
      128
O   -0.18521436   0.15813107  -0.13095914
H    1.46370172   0.06779818   1.04037239
H   -1.67383975   0.11729206   0.93994020
