 3
        1
O    0.00080404   0.00000000  -0.06186255
H    0.71327299   0.00000000   0.48574155
H   -0.72603969   0.00000000   0.49610080
 3
        2
O   -0.00118277   0.00000000  -0.08145068
H    0.82202113   0.00000000   0.65392546
H   -0.80324084   0.00000000   0.63868661
 3
        3
O    0.00065081   0.00000000  -0.06829191
H    0.75691614   0.00000000   0.53772639
H   -0.76724995   0.00000000   0.54611152
