 3
        1
C    0.00845739   0.06915343  -0.02394402
O   -1.13831789  -0.02594232   0.00898240
O    1.13197246  -0.02594232   0.00898240
 3
        2
C   -0.02231053  -0.00920020   0.02943586
O   -1.17760612   0.00345138  -0.01104261
O    1.19434533   0.00345138  -0.01104261
 3
        3
C    0.03125972  -0.04819182  -0.04122538
O   -1.20029960   0.01807875   0.01546535
O    1.17684596   0.01807875   0.01546535
 3
        4
C   -0.01796634   0.12416010   0.05972269
O   -1.18180145  -0.04657761  -0.02240446
O    1.19528128  -0.04657761  -0.02240446
 3
        5
C   -0.00003839  -0.10613022  -0.06550516
O   -1.20230715   0.03981385   0.02457370
O    1.20233595   0.03981385   0.02457370
 3
        6
C    0.04511611  -0.01071710   0.18669679
O   -1.15651263   0.00402043  -0.07003772
O    1.12266278   0.00402043  -0.07003772
 3
        7
C    0.03668907   0.00326046  -0.03564380
O   -1.23668322  -0.00122313   0.01337147
O    1.20915603  -0.00122313   0.01337147
 3
        8
C   -0.03628711   0.01802414  -0.02919310
O   -1.20184713  -0.00676160   0.01095154
O    1.22907273  -0.00676160   0.01095154
 3
        9
C   -0.02768476  -0.03506191  -0.02171815
O   -1.16005884   0.01315318   0.00814738
O    1.18083024   0.01315318   0.00814738
 3
       10
C    0.02111850   0.01439239  -0.08585670
O   -1.17592603  -0.00539918   0.03220841
O    1.16008118  -0.00539918   0.03220841
 3
       11
C    0.02957769   0.01805585  -0.01624143
O   -1.18169190  -0.00677350   0.00609284
O    1.15950026  -0.00677350   0.00609284
 3
       12
C   -0.00255818   0.03087339   0.04495983
O   -1.22635647  -0.01158189  -0.01686630
O    1.22827584  -0.01158189  -0.01686630
 3
       13
C   -0.04556355  -0.01497934  -0.08016060
O   -1.13582812   0.00561937   0.03007157
O    1.17001368   0.00561937   0.03007157
 3
       14
C    0.03530904   0.07974934   0.08279366
O   -1.17754417  -0.02991729  -0.03105934
O    1.15105240  -0.02991729  -0.03105934
 3
       15
C   -0.00464260  -0.19591542   0.05729278
O   -1.16211324   0.07349600  -0.02149290
O    1.16559650   0.07349600  -0.02149290
 3
       16
C   -0.08419951   0.02547727   0.04099792
O   -1.22598251  -0.00955758  -0.01538002
O    1.28915597  -0.00955758  -0.01538002
