3
0.0 
C    0.00000000000000e+00   0.00000000000000e+00   0.00000000000000e+00
O    1.18147200000000e+00   0.00000000000000e+00   0.00000000000000e+00
O   -1.18147200000000e+00   0.00000000000000e+00   0.00000000000000e+00
3
9.22853709030336 
C    8.45739000000000e-03   6.91534300000000e-02  -2.39440200000000e-02
O    1.13197246000000e+00  -2.59423200000000e-02   8.98240000000000e-03
O   -1.13831789000000e+00  -2.59423200000000e-02   8.98240000000000e-03
3
2.3646385434994395 
C   -2.23105300000000e-02  -9.20020000000000e-03   2.94358600000000e-02
O    1.19434533000000e+00   3.45138000000000e-03  -1.10426100000000e-02
O   -1.17760612000000e+00   3.45138000000000e-03  -1.10426100000000e-02
3
5.061490792293113 
C    3.12597200000000e-02  -4.81918200000000e-02  -4.12253800000000e-02
O    1.17684596000000e+00   1.80787500000000e-02   1.54653500000000e-02
O   -1.20029960000000e+00   1.80787500000000e-02   1.54653500000000e-02
3
5.832471680039634 
C   -1.79663400000000e-02   1.24160100000000e-01   5.97226900000000e-02
O    1.19528128000000e+00  -4.65776100000000e-02  -2.24044600000000e-02
O   -1.18180145000000e+00  -4.65776100000000e-02  -2.24044600000000e-02
3
4.838690509804334 
C   -3.83900000000000e-05  -1.06130220000000e-01  -6.55051600000000e-02
O    1.20233595000000e+00   3.98138500000000e-02   2.45737000000000e-02
O   -1.20230715000000e+00   3.98138500000000e-02   2.45737000000000e-02
3
20.701625471978375 
C    4.51161100000000e-02  -1.07171000000000e-02   1.86696790000000e-01
O    1.12266278000000e+00   4.02043000000000e-03  -7.00377200000000e-02
O   -1.15651263000000e+00   4.02043000000000e-03  -7.00377200000000e-02
3
7.8978903151714075 
C    3.66890700000000e-02   3.26046000000000e-03  -3.56438000000000e-02
O    1.20915603000000e+00  -1.22313000000000e-03   1.33714700000000e-02
O   -1.23668322000000e+00  -1.22313000000000e-03   1.33714700000000e-02
3
6.887648394713355 
C   -3.62871100000000e-02   1.80241400000000e-02  -2.91931000000000e-02
O    1.22907273000000e+00  -6.76160000000000e-03   1.09515400000000e-02
O   -1.20184713000000e+00  -6.76160000000000e-03   1.09515400000000e-02
3
4.979992983912676 
C   -2.76847600000000e-02  -3.50619100000000e-02  -2.17181500000000e-02
O    1.18083024000000e+00   1.31531800000000e-02   8.14738000000000e-03
O   -1.16005884000000e+00   1.31531800000000e-02   8.14738000000000e-03
3
4.52149106932285 
C    2.11185000000000e-02   1.43923900000000e-02  -8.58567000000000e-02
O    1.16008118000000e+00  -5.39918000000000e-03   3.22084100000000e-02
O   -1.17592603000000e+00  -5.39918000000000e-03   3.22084100000000e-02
3
5.371694538785763 
C    2.95776900000000e-02   1.80558500000000e-02  -1.62414300000000e-02
O    1.15950026000000e+00  -6.77350000000000e-03   6.09284000000000e-03
O   -1.18169190000000e+00  -6.77350000000000e-03   6.09284000000000e-03
3
4.859463440108402 
C   -2.55818000000000e-03   3.08733900000000e-02   4.49598300000000e-02
O    1.22827584000000e+00  -1.15818900000000e-02  -1.68663000000000e-02
O   -1.22635647000000e+00  -1.15818900000000e-02  -1.68663000000000e-02
3
16.03862155106891 
C   -4.55635500000000e-02  -1.49793400000000e-02  -8.01606000000000e-02
O    1.17001368000000e+00   5.61937000000000e-03   3.00715700000000e-02
O   -1.13582812000000e+00   5.61937000000000e-03   3.00715700000000e-02
3
9.769068723213275 
C    3.53090400000000e-02   7.97493400000000e-02   8.27936600000000e-02
O    1.15105240000000e+00  -2.99172900000000e-02  -3.10593400000000e-02
O   -1.17754417000000e+00  -2.99172900000000e-02  -3.10593400000000e-02
3
9.986681274623944 
C   -4.64260000000000e-03  -1.95915420000000e-01   5.72927800000000e-02
O    1.16559650000000e+00   7.34960000000000e-02  -2.14929000000000e-02
O   -1.16211324000000e+00   7.34960000000000e-02  -2.14929000000000e-02
3
29.24199668743866 
C   -8.41995100000000e-02   2.54772700000000e-02   4.09979200000000e-02
O    1.28915597000000e+00  -9.55758000000000e-03  -1.53800200000000e-02
O   -1.22598251000000e+00  -9.55758000000000e-03  -1.53800200000000e-02
