6
0.0 
N    0.00000000000000e+00   0.00000000000000e+00  -9.47158000000000e-01
N    0.00000000000000e+00   0.00000000000000e+00   9.47158000000000e-01
O    0.00000000000000e+00   1.11776900000000e+00  -1.41241900000000e+00
O    0.00000000000000e+00  -1.11776900000000e+00  -1.41241900000000e+00
O    0.00000000000000e+00   1.11776900000000e+00   1.41241900000000e+00
O    0.00000000000000e+00  -1.11776900000000e+00   1.41241900000000e+00
6
8.31209696008177 
N    2.30316365490150e-02   4.49818199391762e-02   9.15896536969808e-01
N    8.52913128114107e-02   7.13028404857423e-02  -9.95808968654660e-01
O   -9.88290072912336e-02   1.00490621044240e+00   1.64199268244780e+00
O    9.46634981179625e-02  -1.15190771835130e+00   1.17048010837356e+00
O    4.46948894920159e-02   1.15652465992936e+00  -1.46548293242875e+00
O   -1.35365279543164e-01  -1.11132946732591e+00  -1.27702714630999e+00
6
2.7818604352489635 
N    8.69163105962443e-03   1.17172543105850e-02  -1.00483862782353e+00
N   -3.35050636087730e-02  -1.68603743258656e-02   9.50490272035619e-01
O   -2.56393326873237e-02  -1.12528933243398e+00  -1.45713023904421e+00
O    2.46235365551382e-02   1.15532923022324e+00  -1.38717143231283e+00
O    3.70803416061070e-02  -1.13280569145748e+00   1.43513389228160e+00
O   -1.43405783687322e-02   1.10726855521918e+00   1.45674934164318e+00
6
-8.764836825277055 
N   -6.92164440431135e-02   3.75964913626243e-02   8.83946172647938e-01
N   -9.24345703339652e-02  -3.35593422256371e-02  -8.87827805902240e-01
O    2.12000995097863e-01   1.20446225592904e+00   1.34994157150993e+00
O   -1.66858978544054e-01  -1.07335024285171e+00   1.40328462817925e+00
O   -1.44167224422858e-01   1.04620822258300e+00  -1.53658238297511e+00
O    2.40549413030605e-01  -1.18085472831373e+00  -1.21324547700577e+00
6
10.99541283013633 
N    7.92820821306085e-02  -5.85092872167561e-02   9.52819889261432e-01
N    1.09953235976937e-01  -6.27990459477435e-02  -9.83430569568742e-01
O   -1.38046589039039e-01   1.05066500955470e+00   1.28283344694114e+00
O    3.71347047711257e-02  -1.13013260802052e+00   1.56729695687483e+00
O    5.90552458785770e-02   1.20359009059280e+00  -1.10544529833801e+00
O   -1.23817410034464e-01  -1.01791799043093e+00  -1.71788569307316e+00
6
12.841639051010608 
N   -6.27052592681445e-02   6.60251327212898e-02   1.01619465255963e+00
N    7.32992735740873e-03  -1.94667367717767e-02  -9.18141397356997e-01
O    3.63487967822316e-01   1.28125760765524e+00   1.32041008725098e+00
O   -3.59429622073344e-01  -1.04276285412787e+00   1.56237875412567e+00
O   -3.74719443686062e-01   9.06611930157687e-01  -1.74787404970877e+00
O    4.19141770108705e-01  -1.18586819703370e+00  -1.22075965357320e+00
6
62.12369937464218 
N    8.11388211732855e-02   2.08800105459940e-02   8.49654137359821e-01
N   -9.80181509908493e-02   3.04102123947567e-02  -1.05227045731492e+00
O   -5.68420229784691e-01  -1.13092229135855e+00   1.48430182742037e+00
O    5.05339041756598e-01   1.13541529578414e+00   1.50866697114249e+00
O    5.56017939015266e-01  -1.19815288349171e+00  -1.36884897421524e+00
O   -4.78159029082389e-01   1.14875568800848e+00  -1.44673081293371e+00
6
3.160884338761833 
N    4.73295803671885e-02   5.64909140398906e-02   8.81337808872272e-01
N    2.05637276108344e-01  -3.34792695353228e-02  -8.32723176316227e-01
O    1.52828848987473e-01   1.18869256581382e+00   1.29780102993912e+00
O   -2.34796206561041e-01  -1.01443938234587e+00   1.48866969011929e+00
O   -2.65934094974227e-01   9.98020364981544e-01  -1.58594259893200e+00
O    1.26430938224852e-01  -1.19242006414269e+00  -1.24308985362298e+00
6
36.27544925783999 
N   -2.38157973189141e-02  -7.49074215374531e-02   1.00226253641467e+00
N    5.13679950421088e-02   1.64025047674580e-02  -8.64477264818570e-01
O   -2.90322754144246e-01   1.08768402684034e+00   1.27464012143084e+00
O    2.19946477973862e-01  -1.20038681929968e+00   1.40829866912378e+00
O    3.17528101397335e-01   1.05632996595038e+00  -1.08772134652073e+00
O   -2.71273559929669e-01  -8.92406574128741e-01  -1.71584737710762e+00
6
20.374173508817808 
N   -4.53020066956995e-03   9.77132563702485e-03  -9.68814378693226e-01
N   -4.05636149545912e-02  -1.58422565465280e-02   9.92697585810681e-01
O    6.32460078383883e-02  -1.11496705192706e+00  -1.37391497944020e+00
O   -5.46757401176931e-02   1.05916978001586e+00  -1.43844230940713e+00
O   -4.01278509782413e-02  -1.11153094352964e+00   1.42705020208492e+00
O    7.10368679283146e-02   1.17264326820972e+00   1.36439752478390e+00
6
2.6529414730423575 
N   -6.67531370209962e-02  -1.53761390145688e-02   9.49758994628100e-01
N    7.12394025892686e-02   4.75776119599487e-02  -9.16567906261831e-01
O   -1.73665623632200e-02   1.04438829469997e+00   1.58291759217641e+00
O    5.87210235062549e-02  -1.20062464427873e+00   1.24160330289747e+00
O    1.77210798347483e-02   1.15009389250324e+00  -1.39402254341910e+00
O   -6.30032315718698e-02  -1.02204968190478e+00  -1.45955689123515e+00
6
6.811762809579999 
N   -5.86932166533289e-02   6.45731500844471e-02  -8.93513036570258e-01
N   -8.09577142490174e-02   3.55295420205254e-03   9.40783478785564e-01
O    3.31066841661470e-02  -1.02075466547404e+00  -1.48111376148441e+00
O    2.12409881826163e-02   1.18599530243480e+00  -1.34418158767974e+00
O    2.47181228465185e-02  -1.18437311291125e+00   1.18533961876389e+00
O    4.31975080829958e-02   9.59488601787033e-01   1.59857082608688e+00
6
-2.6724733606249362 
N    7.51475365013628e-02   5.98583839533089e-02   9.51361350121450e-01
N    5.37742629832964e-02  -3.98209617147775e-02  -8.87149400218278e-01
O   -2.59081388905156e-02   1.21545053275804e+00   1.27208929352621e+00
O   -3.82473754347796e-02  -1.13444166759475e+00   1.48998724494252e+00
O   -3.15281702826852e-02   1.09166835217853e+00  -1.44224077055365e+00
O   -1.71863476053843e-02  -1.19021982458572e+00  -1.37605283037484e+00
6
30.894986345509945 
N   -1.02061147519175e-01   1.07482574549462e-02   9.71936514262287e-01
N   -3.82244606486289e-02  -8.74035074481720e-02  -1.04390753984894e+00
O    1.63334745667915e-01   1.17889946139830e+00   1.31387348601954e+00
O   -8.52747881708896e-02  -1.03334875638038e+00   1.46797726349022e+00
O   -9.76105840431660e-02   1.13122265104568e+00  -1.45667055862469e+00
O    1.42369584831435e-01  -1.20966228120547e+00  -1.26217011804350e+00
6
23.166345935873252 
N    5.55331509753544e-02   9.79219947721989e-02   9.18805051821058e-01
N   -1.39713737013077e-01   2.84735221792998e-02  -9.81021075328840e-01
O   -3.07247379476264e-02   1.09937163704416e+00   1.47021384500221e+00
O    1.33808204164444e-02  -1.05494788058965e+00   1.54405647430555e+00
O    6.86835033912544e-02   1.08116642051008e+00  -1.59694115954801e+00
O    2.23598621448263e-02  -1.23624846847904e+00  -1.36285951532737e+00
6
71.6990740430721 
N    1.05578778597166e-01  -1.63785640599519e-01   9.37263023595928e-01
N    7.50881482136047e-02   1.10924479642800e-01  -9.88529272472188e-01
O    8.89250127880933e-02   1.07157414541388e+00   1.43788007420546e+00
O   -1.60370499554599e-01  -1.09612555149765e+00   1.44993462893177e+00
O   -1.60828801778905e-01   1.14279474804997e+00  -1.25007207775625e+00
O    7.41018000249739e-02  -1.07196380690021e+00  -1.59285942343024e+00
6
33.85278694696783 
N   -1.57350211904568e-02  -8.74754232218044e-02  -1.06101627540141e+00
N   -2.92683524100021e-02   8.11475302408542e-02   8.53612240485682e-01
O   -1.92084798697507e-01  -1.20800453200819e+00  -1.13486648881473e+00
O    2.08575023231708e-01   1.01115440643566e+00  -1.45025328449826e+00
O    2.13664897715651e-01  -9.97625533088337e-01   1.53186001202552e+00
O   -1.90755018867039e-01   1.20001567972369e+00   1.23484037989267e+00
