 3
        1
O   -0.00463050   0.00000000  -0.06760644
H    0.86351681   0.00000000   0.56629227
H   -0.78999252   0.00000000   0.50663264
 3
        2
O   -0.00801803   0.00000000  -0.07564870
H    0.73960788   0.00000000   0.65197131
H   -0.61229558   0.00000000   0.54866660
 3
        3
O    0.00414530   0.00000000  -0.07927488
H    0.71039907   0.00000000   0.60236380
H   -0.77621929   0.00000000   0.65577214
 3
        4
O    0.00225713   0.00000000  -0.07089034
H    0.73714223   0.00000000   0.54799970
H   -0.77298152   0.00000000   0.57708068
 3
        5
O   -0.00119685   0.00000000  -0.07033174
H    0.81916600   0.00000000   0.56580091
H   -0.80016210   0.00000000   0.55038062
 3
        6
O    0.00111434   0.00000000  -0.05210605
H    0.72062703   0.00000000   0.40633289
H   -0.73832078   0.00000000   0.42069008
 3
        7
O   -0.00005080   0.00000000  -0.07761716
H    0.74615373   0.00000000   0.61624183
H   -0.74534713   0.00000000   0.61558733
 3
        8
O    0.00578904   0.00000000  -0.06713107
H    0.71172595   0.00000000   0.49541976
H   -0.80364578   0.00000000   0.57000604
 3
        9
O    0.00207728   0.00000000  -0.06752849
H    0.73077975   0.00000000   0.52248742
H   -0.76376340   0.00000000   0.54925126
 3
       10
O   -0.00944811   0.00000000  -0.06970824
H    0.81122897   0.00000000   0.61403233
H   -0.66120940   0.00000000   0.49230231
 3
       11
O    0.01134736   0.00000000  -0.07123781
H    0.54774021   0.00000000   0.49223457
H   -0.72791650   0.00000000   0.63843456
 3
       12
O    0.00069952   0.00000000  -0.06365227
H    0.80555965   0.00000000   0.50058820
H   -0.81666689   0.00000000   0.50960091
 3
       13
O    0.00125215   0.00000000  -0.07652241
H    0.74890155   0.00000000   0.59915810
H   -0.76878356   0.00000000   0.61529090
 3
       14
O   -0.00394551   0.00000000  -0.05757687
H    0.82960971   0.00000000   0.48231282
H   -0.76696180   0.00000000   0.43147859
 3
       15
O    0.00146917   0.00000000  -0.08464175
H    0.67157871   0.00000000   0.66220411
H   -0.69490666   0.00000000   0.68113304
 3
       16
O    0.00178202   0.00000000  -0.06470662
H    0.84646614   0.00000000   0.50196424
H   -0.87476146   0.00000000   0.52492384
 3
       17
O   -0.00715446   0.00000000  -0.07133214
H    0.71466025   0.00000000   0.61216584
H   -0.60105980   0.00000000   0.51998731
 3
       18
O    0.00570686   0.00000000  -0.08323423
H    0.63386642   0.00000000   0.62373865
H   -0.72448150   0.00000000   0.69726622
 3
       19
O   -0.00095300   0.00000000  -0.05790738
H    0.86294737   0.00000000   0.46563895
H   -0.84781547   0.00000000   0.45336051
 3
       20
O   -0.00335387   0.00000000  -0.08537338
H    0.70887422   0.00000000   0.69907943
H   -0.65562061   0.00000000   0.65586799
 3
       21
O   -0.00712354   0.00000000  -0.07138653
H    0.78959655   0.00000000   0.61237411
H   -0.67648719   0.00000000   0.52059406
 3
       22
O    0.00812400   0.00000000  -0.07557504
H    0.66367111   0.00000000   0.54738277
H   -0.79266609   0.00000000   0.65205285
 3
       23
O   -0.00444700   0.00000000  -0.05606907
H    0.95871401   0.00000000   0.47354024
H   -0.88810341   0.00000000   0.41624486
 3
       24
O    0.00181130   0.00000000  -0.05656108
H    0.75814869   0.00000000   0.43717608
H   -0.78690894   0.00000000   0.46051294
 3
       25
O    0.00084045   0.00000000  -0.05689289
H    0.67172992   0.00000000   0.44609302
H   -0.68507475   0.00000000   0.45692138
 3
       26
O    0.00135462   0.00000000  -0.07062191
H    0.77250430   0.00000000   0.55167492
H   -0.79401334   0.00000000   0.56912795
 3
       27
O    0.00131384   0.00000000  -0.04809327
H    0.82949980   0.00000000   0.37317452
H   -0.85036131   0.00000000   0.39010213
 3
       28
O   -0.00648603   0.00000000  -0.08159834
H    0.82250622   0.00000000   0.68927694
H   -0.71951929   0.00000000   0.60571051
 3
       29
O   -0.00145503   0.00000000  -0.07695923
H    0.63058175   0.00000000   0.62010840
H   -0.60747843   0.00000000   0.60136173
 3
       30
O    0.00542368   0.00000000  -0.07544651
H    0.73007485   0.00000000   0.56374416
H   -0.81619338   0.00000000   0.63362312
 3
       31
O    0.00272976   0.00000000  -0.06567791
H    0.79428963   0.00000000   0.50357944
H   -0.83763352   0.00000000   0.53874986
 3
       32
O   -0.00169774   0.00000000  -0.06109000
H    0.82409386   0.00000000   0.49570226
H   -0.79713668   0.00000000   0.47382846
 3
       33
O   -0.00304599   0.00000000  -0.06919268
H    0.81247107   0.00000000   0.56868252
H   -0.76410603   0.00000000   0.52943779
 3
       34
O   -0.00249868   0.00000000  -0.06368131
H    0.82916153   0.00000000   0.52142207
H   -0.78948684   0.00000000   0.48922894
 3
       35
O   -0.00109774   0.00000000  -0.07442213
H    0.62483307   0.00000000   0.59767798
H   -0.60740292   0.00000000   0.58353468
 3
       36
O    0.00560577   0.00000000  -0.07275829
H    0.73197004   0.00000000   0.54124139
H   -0.82097995   0.00000000   0.61346648
 3
       37
O    0.00406560   0.00000000  -0.04142925
H    0.83834906   0.00000000   0.30256461
H   -0.90290366   0.00000000   0.35494599
 3
       38
O   -0.00125174   0.00000000  -0.07305460
H    0.78868155   0.00000000   0.58776788
H   -0.76880607   0.00000000   0.57164037
 3
       39
O    0.00317439   0.00000000  -0.07448078
H    0.57024519   0.00000000   0.57062880
H   -0.62064894   0.00000000   0.61152779
 3
       40
O   -0.00161873   0.00000000  -0.08460372
H    0.76085332   0.00000000   0.68177398
H   -0.73515078   0.00000000   0.66091823
 3
       41
O   -0.00972793   0.00000000  -0.08423806
H    0.90658733   0.00000000   0.73108658
H   -0.75212464   0.00000000   0.60575131
 3
       42
O    0.00199541   0.00000000  -0.07335749
H    0.69340483   0.00000000   0.56927510
H   -0.72508843   0.00000000   0.59498405
 3
       43
O   -0.00264054   0.00000000  -0.07141823
H    0.72319935   0.00000000   0.58375589
H   -0.68127222   0.00000000   0.54973506
 3
       44
O    0.00946840   0.00000000  -0.07830067
H    0.60376859   0.00000000   0.56036330
H   -0.75411033   0.00000000   0.68235473
 3
       45
O    0.00235073   0.00000000  -0.04119300
H    1.02668896   0.00000000   0.31168151
H   -1.06401444   0.00000000   0.34196844
 3
       46
O    0.00285263   0.00000000  -0.08224790
H    0.69737671   0.00000000   0.63428696
H   -0.74267148   0.00000000   0.67104037
 3
       47
O   -0.00259665   0.00000000  -0.06780190
H    0.77569655   0.00000000   0.55476377
H   -0.73446633   0.00000000   0.52130844
 3
       48
O    0.00654738   0.00000000  -0.09702579
H    0.62770010   0.00000000   0.72774785
H   -0.73166103   0.00000000   0.81210461
 3
       49
O    0.00380775   0.00000000  -0.08821660
H    0.55670899   0.00000000   0.67553303
H   -0.61716947   0.00000000   0.72459233
 3
       50
O    0.00508544   0.00000000  -0.05984945
H    0.79268575   0.00000000   0.44215493
H   -0.87343364   0.00000000   0.50767599
 3
       51
O    0.00184830   0.00000000  -0.08515803
H    0.67823605   0.00000000   0.66385485
H   -0.70758390   0.00000000   0.68766850
 3
       52
O   -0.01157873   0.00000000  -0.05588375
H    0.81745930   0.00000000   0.51807599
H   -0.63360923   0.00000000   0.36889498
 3
       53
O    0.00423269   0.00000000  -0.08301108
H    0.62262584   0.00000000   0.63147215
H   -0.68983355   0.00000000   0.68600633
 3
       54
O   -0.00079623   0.00000000  -0.07308196
H    0.85562609   0.00000000   0.58502796
H   -0.84298342   0.00000000   0.57476935
 3
       55
O    0.00504545   0.00000000  -0.05517470
H    0.76753800   0.00000000   0.40533069
H   -0.84765091   0.00000000   0.47033652
 3
       56
O   -0.01625337   0.00000000  -0.05618360
H    0.94599833   0.00000000   0.55054001
H   -0.68792303   0.00000000   0.34113061
 3
       57
O   -0.00365584   0.00000000  -0.07632548
H    0.78321848   0.00000000   0.62921457
H   -0.72517012   0.00000000   0.58211254
 3
       58
O    0.00793732   0.00000000  -0.05634309
H    0.74594519   0.00000000   0.39597082
H   -0.87197606   0.00000000   0.49823574
 3
       59
O   -0.00768177   0.00000000  -0.08170257
H    0.93771884   0.00000000   0.69777306
H   -0.81574568   0.00000000   0.59880068
 3
       60
O   -0.00807127   0.00000000  -0.05688644
H    0.77075987   0.00000000   0.50344241
H   -0.64260208   0.00000000   0.39945165
 3
       61
O    0.00429878   0.00000000  -0.08050229
H    0.70801376   0.00000000   0.61111387
H   -0.77627096   0.00000000   0.66649963
 3
       62
O    0.00902675   0.00000000  -0.06293568
H    0.73648213   0.00000000   0.44125941
H   -0.87981119   0.00000000   0.55756056
 3
       63
O    0.00521883   0.00000000  -0.04727220
H    0.87789043   0.00000000   0.34147864
H   -0.96075635   0.00000000   0.40871832
 3
       64
O   -0.00743531   0.00000000  -0.06929811
H    0.74675423   0.00000000   0.59782728
H   -0.62869439   0.00000000   0.50203027
 3
       65
O    0.00178694   0.00000000  -0.06977101
H    0.77711677   0.00000000   0.54213625
H   -0.80549021   0.00000000   0.56515924
 3
       66
O   -0.00431544   0.00000000  -0.05600314
H    0.83349598   0.00000000   0.47220941
H   -0.76497434   0.00000000   0.41660907
 3
       67
O   -0.00312897   0.00000000  -0.08242264
H    0.73104139   0.00000000   0.67421144
H   -0.68135872   0.00000000   0.63389755
 3
       68
O   -0.00689267   0.00000000  -0.05732153
H    0.95367142   0.00000000   0.49924031
H   -0.84422788   0.00000000   0.41043481
 3
       69
O    0.00608659   0.00000000  -0.07221481
H    0.69656770   0.00000000   0.53384197
H   -0.79321213   0.00000000   0.61226192
 3
       70
O   -0.00433510   0.00000000  -0.06810448
H    0.78939526   0.00000000   0.56836369
H   -0.72056144   0.00000000   0.51251003
 3
       71
O    0.00260890   0.00000000  -0.06747029
H    0.66926530   0.00000000   0.51861935
H   -0.71069005   0.00000000   0.55223253
 3
       72
O   -0.00456717   0.00000000  -0.06852958
H    0.84774816   0.00000000   0.57321340
H   -0.77522951   0.00000000   0.51436977
 3
       73
O    0.00606828   0.00000000  -0.06588776
H    0.82757143   0.00000000   0.48371849
H   -0.92392518   0.00000000   0.56190257
 3
       74
O    0.00695828   0.00000000  -0.05621233
H    0.66212976   0.00000000   0.40126967
H   -0.77261515   0.00000000   0.49092056
 3
       75
O    0.00024121   0.00000000  -0.08434650
H    0.74398911   0.00000000   0.66775216
H   -0.74781903   0.00000000   0.67085986
 3
       76
O    0.00382012   0.00000000  -0.06392662
H    0.74479863   0.00000000   0.48267345
H   -0.80545542   0.00000000   0.53189204
 3
       77
O    0.00209714   0.00000000  -0.06863538
H    0.81150430   0.00000000   0.53111586
H   -0.84480330   0.00000000   0.55813559
 3
       78
O   -0.00282643   0.00000000  -0.06732274
H    0.73419867   0.00000000   0.55245627
H   -0.68931982   0.00000000   0.51604033
 3
       79
O   -0.00244975   0.00000000  -0.06789968
H    0.79637436   0.00000000   0.55458629
H   -0.75747660   0.00000000   0.52302358
 3
       80
O   -0.00235305   0.00000000  -0.07349216
H    0.77925652   0.00000000   0.59834008
H   -0.74189412   0.00000000   0.56802319
 3
       81
O   -0.00557062   0.00000000  -0.07598775
H    0.76574497   0.00000000   0.63888050
H   -0.67729322   0.00000000   0.56710832
 3
       82
O    0.00356901   0.00000000  -0.06689158
H    0.83893576   0.00000000   0.50778600
H   -0.89560538   0.00000000   0.55376930
 3
       83
O    0.00165473   0.00000000  -0.06201361
H    0.71462968   0.00000000   0.48146001
H   -0.74090398   0.00000000   0.50277971
 3
       84
O   -0.00164102   0.00000000  -0.06845024
H    0.73759602   0.00000000   0.55376136
H   -0.71153954   0.00000000   0.53261841
 3
       85
O    0.00193284   0.00000000  -0.05633180
H    0.73212620   0.00000000   0.43458199
H   -0.76281630   0.00000000   0.45948478
 3
       86
O    0.00345640   0.00000000  -0.07803856
H    0.84449905   0.00000000   0.59695144
H   -0.89938075   0.00000000   0.64148396
 3
       87
O    0.00256495   0.00000000  -0.06792665
H    0.70688261   0.00000000   0.52251138
H   -0.74760954   0.00000000   0.55555833
 3
       88
O   -0.00973935   0.00000000  -0.07912401
H    0.75591026   0.00000000   0.69063277
H   -0.60126638   0.00000000   0.56515047
 3
       89
O   -0.00865027   0.00000000  -0.07749261
H    0.87839082   0.00000000   0.67063129
H   -0.74103957   0.00000000   0.55918070
 3
       90
O    0.01401968   0.00000000  -0.07829004
H    0.71651794   0.00000000   0.53091187
H   -0.93912606   0.00000000   0.71154223
 3
       91
O    0.00029020   0.00000000  -0.05935628
H    0.82309498   0.00000000   0.46913566
H   -0.82770277   0.00000000   0.47287455
 3
       92
O    0.00538237   0.00000000  -0.06791257
H    0.62349259   0.00000000   0.50426927
H   -0.70895523   0.00000000   0.57361601
 3
       93
O   -0.00380719   0.00000000  -0.06049512
H    0.82267097   0.00000000   0.50457731
H   -0.76221942   0.00000000   0.45552527
 3
       94
O    0.00803081   0.00000000  -0.08614329
H    0.69407331   0.00000000   0.63182337
H   -0.82158861   0.00000000   0.73529279
 3
       95
O   -0.00251547   0.00000000  -0.06137669
H    0.80864089   0.00000000   0.50325177
H   -0.76869955   0.00000000   0.47084226
 3
       96
O   -0.00641174   0.00000000  -0.08888415
H    0.59923147   0.00000000   0.74667607
H   -0.49742423   0.00000000   0.66406686
 3
       97
O   -0.00319517   0.00000000  -0.04933323
H    0.86487709   0.00000000   0.41205980
H   -0.81414334   0.00000000   0.37089303
 3
       98
O    0.00015785   0.00000000  -0.07283113
H    0.64304026   0.00000000   0.57695727
H   -0.64554660   0.00000000   0.57899099
 3
       99
O   -0.00434214   0.00000000  -0.05513291
H    0.88519891   0.00000000   0.46546040
H   -0.81625331   0.00000000   0.40951604
 3
      100
O    0.00480513   0.00000000  -0.08233042
H    0.77340863   0.00000000   0.62233433
H   -0.84970576   0.00000000   0.68424392
 3
      101
O   -0.00775180   0.00000000  -0.07395620
H    0.82822409   0.00000000   0.63679877
H   -0.70513899   0.00000000   0.53692412
 3
      102
O    0.00449207   0.00000000  -0.08460887
H    0.49393698   0.00000000   0.64251878
H   -0.56526323   0.00000000   0.70039485
 3
      103
O   -0.00637040   0.00000000  -0.07390643
H    0.82110356   0.00000000   0.62750356
H   -0.71995270   0.00000000   0.54542697
 3
      104
O    0.01090685   0.00000000  -0.07121278
H    0.68808764   0.00000000   0.49482998
H   -0.86126941   0.00000000   0.63535444
 3
      105
O    0.00575324   0.00000000  -0.05182300
H    0.70064575   0.00000000   0.37419782
H   -0.79199719   0.00000000   0.44832289
 3
      106
O   -0.00278056   0.00000000  -0.06773528
H    0.75510013   0.00000000   0.55542704
H   -0.71094975   0.00000000   0.51960221
 3
      107
O    0.00510236   0.00000000  -0.06217039
H    0.70362413   0.00000000   0.46048901
H   -0.78464066   0.00000000   0.52622805
 3
      108
O    0.00388667   0.00000000  -0.08742183
H    0.90596714   0.00000000   0.66860690
H   -0.96768073   0.00000000   0.71868300
 3
      109
O   -0.00773258   0.00000000  -0.04861442
H    0.82161156   0.00000000   0.43561220
H   -0.69883159   0.00000000   0.33598516
 3
      110
O   -0.00329670   0.00000000  -0.06625819
H    0.74902047   0.00000000   0.54703591
H   -0.69667457   0.00000000   0.50456101
 3
      111
O   -0.00307378   0.00000000  -0.06996405
H    0.75592339   0.00000000   0.57499979
H   -0.70711712   0.00000000   0.53539704
 3
      112
O    0.00444088   0.00000000  -0.04549158
H    0.97182431   0.00000000   0.33233444
H   -1.04233783   0.00000000   0.38955104
 3
      113
O   -0.00535083   0.00000000  -0.06189360
H    0.78776187   0.00000000   0.52563228
H   -0.70279997   0.00000000   0.45669186
 3
      114
O    0.00048181   0.00000000  -0.07321670
H    0.73110581   0.00000000   0.57790048
H   -0.73875606   0.00000000   0.58410810
 3
      115
O    0.01420261   0.00000000  -0.05590772
H    0.75386448   0.00000000   0.35213694
H   -0.97937719   0.00000000   0.53512416
 3
      116
O    0.00267538   0.00000000  -0.05929324
H    0.57450971   0.00000000   0.45334346
H   -0.61699011   0.00000000   0.48781322
 3
      117
O   -0.01018931   0.00000000  -0.09411403
H    0.72994392   0.00000000   0.81247353
H   -0.56815544   0.00000000   0.68119390
 3
      118
O    0.00819756   0.00000000  -0.05427437
H    0.69913160   0.00000000   0.37789524
H   -0.82929460   0.00000000   0.48351308
 3
      119
O    0.00001607   0.00000000  -0.08403369
H    0.81543902   0.00000000   0.66669830
H   -0.81569412   0.00000000   0.66690529
 3
      120
O   -0.00187087   0.00000000  -0.06831569
H    0.65063099   0.00000000   0.55420296
H   -0.62092481   0.00000000   0.53009855
 3
      121
O   -0.00063635   0.00000000  -0.08076081
H    0.67733002   0.00000000   0.64497960
H   -0.66722585   0.00000000   0.63678079
 3
      122
O   -0.01232568   0.00000000  -0.08602883
H    0.99385165   0.00000000   0.76200811
H   -0.79814135   0.00000000   0.60320338
 3
      123
O    0.01856274   0.00000000  -0.06505616
H    0.67872858   0.00000000   0.39664666
H   -0.97347257   0.00000000   0.63581005
 3
      124
O   -0.00972388   0.00000000  -0.05696712
H    0.88566847   0.00000000   0.51469606
H   -0.73127020   0.00000000   0.38941305
 3
      125
O   -0.00413278   0.00000000  -0.09071222
H    0.61752258   0.00000000   0.74648745
H   -0.55190121   0.00000000   0.69324047
 3
      126
O    0.00090028   0.00000000  -0.04762985
H    0.87100040   0.00000000   0.37214962
H   -0.88529521   0.00000000   0.38374882
 3
      127
O    0.00771827   0.00000000  -0.07688342
H    0.64852761   0.00000000   0.56038318
H   -0.77108038   0.00000000   0.65982587
 3
      128
O   -0.01501836   0.00000000  -0.04976858
H    0.88771467   0.00000000   0.49170197
H   -0.64924925   0.00000000   0.29820457
